<?xml version="1.0" encoding="UTF-8"?>
<export version="E">
  <components>
    <comp ref="U1"><value>CPU8080</value><libsource lib="juku" part="CPU8080"/></comp>
    <comp ref="U2"><value>ROM16K</value><libsource lib="juku" part="ROM16K"/></comp>
    <comp ref="U3"><value>PPI8255</value><libsource lib="juku" part="PPI8255"/></comp>
  </components>
  <nets>
    <net code="1" name="A0">
      <node ref="U1" pin="1"/>
      <node ref="U2" pin="1"/>
      <node ref="U3" pin="1"/>
    </net>
    <net code="2" name="A1">
      <node ref="U1" pin="2"/>
      <node ref="U2" pin="2"/>
      <node ref="U3" pin="2"/>
    </net>
    <net code="3" name="A2">
      <node ref="U1" pin="3"/>
      <node ref="U2" pin="3"/>
    </net>
    <net code="4" name="A3">
      <node ref="U1" pin="4"/>
      <node ref="U2" pin="4"/>
    </net>
    <net code="5" name="A4">
      <node ref="U1" pin="5"/>
      <node ref="U2" pin="5"/>
    </net>
    <net code="6" name="A5">
      <node ref="U1" pin="6"/>
      <node ref="U2" pin="6"/>
    </net>
    <net code="7" name="A6">
      <node ref="U1" pin="7"/>
      <node ref="U2" pin="7"/>
    </net>
    <net code="8" name="A7">
      <node ref="U1" pin="8"/>
      <node ref="U2" pin="8"/>
    </net>
    <net code="9" name="A8">
      <node ref="U1" pin="9"/>
      <node ref="U2" pin="9"/>
    </net>
    <net code="10" name="A9">
      <node ref="U1" pin="10"/>
      <node ref="U2" pin="10"/>
    </net>
    <net code="11" name="A10">
      <node ref="U1" pin="11"/>
      <node ref="U2" pin="11"/>
    </net>
    <net code="12" name="A11">
      <node ref="U1" pin="12"/>
      <node ref="U2" pin="12"/>
    </net>
    <net code="13" name="A12">
      <node ref="U1" pin="13"/>
      <node ref="U2" pin="13"/>
    </net>
    <net code="14" name="A13">
      <node ref="U1" pin="14"/>
      <node ref="U2" pin="14"/>
    </net>
    <net code="15" name="A14">
      <node ref="U1" pin="15"/>
    </net>
    <net code="16" name="A15">
      <node ref="U1" pin="16"/>
    </net>
    <net code="17" name="D0">
      <node ref="U1" pin="17"/>
      <node ref="U2" pin="15"/>
      <node ref="U3" pin="3"/>
    </net>
    <net code="18" name="D1">
      <node ref="U1" pin="18"/>
      <node ref="U2" pin="16"/>
      <node ref="U3" pin="4"/>
    </net>
    <net code="19" name="D2">
      <node ref="U1" pin="19"/>
      <node ref="U2" pin="17"/>
      <node ref="U3" pin="5"/>
    </net>
    <net code="20" name="D3">
      <node ref="U1" pin="20"/>
      <node ref="U2" pin="18"/>
      <node ref="U3" pin="6"/>
    </net>
    <net code="21" name="D4">
      <node ref="U1" pin="21"/>
      <node ref="U2" pin="19"/>
      <node ref="U3" pin="7"/>
    </net>
    <net code="22" name="D5">
      <node ref="U1" pin="22"/>
      <node ref="U2" pin="20"/>
      <node ref="U3" pin="8"/>
    </net>
    <net code="23" name="D6">
      <node ref="U1" pin="23"/>
      <node ref="U2" pin="21"/>
      <node ref="U3" pin="9"/>
      <node ref="U3" pin="10"/>
    </net>
    <net code="24" name="D7">
      <node ref="U1" pin="24"/>
      <node ref="U2" pin="22"/>
    </net>
    <net code="25" name="IOR_N">
      <node ref="U1" pin="25"/>
      <node ref="U3" pin="12"/>
    </net>
    <net code="26" name="IOW_N">
      <node ref="U1" pin="26"/>
      <node ref="U3" pin="13"/>
    </net>
  </nets>
</export>
